100

Au        27.870003       19.770000       -3.100000
Au        24.990002       24.520000      -10.260000
Au         0.850000       13.450001      -25.500002
Au         7.790000       12.240001      -25.540001
Au        -3.530000       17.590000      -24.030001
Au        -6.080000        8.520000      -30.060001
Au        -6.130000        6.910000      -33.760002
Au        -6.580000       17.600000      -25.940001
Au        -9.260000       19.010002      -26.410000
Au        -5.360000       19.160002      -28.320000
Au         5.080000       16.540001      -29.660000
Au       -12.970000       22.420002      -25.110001
Au         5.470000       11.880001      -32.430004
Au       -10.570001       21.220001      -25.710001
Au       -10.780001       24.170000      -25.160000
Au       -12.190001       23.730001      -22.950001
Au         2.440000        5.790000      -34.290001
Au        -2.740000        5.640000      -34.270000
Au         0.730000        8.680000      -32.520000
Au       -10.590000        8.490001      -31.830002
Au         0.810000       11.760000      -32.620003
Au        -8.790001        7.970000      -33.840000
Au        -1.120000       11.610001      -30.030003
Au         1.690000       25.400002      -25.530003
Au        -6.200000       11.560000      -30.510002
Au         7.870001       13.360001      -29.240000
Au        -3.280000       14.790001      -28.200001
Au         1.690000       30.180000      -19.930002
Au        11.740000       16.080000      -24.880001
Au        -4.220000       11.340000      -32.800003
Au        -0.710000       18.700001      -23.820002
Au       -10.610001       14.610001      -30.130003
Au         3.010000       15.450001      -24.640003
Au        -5.770000       21.570000      -24.170000
Au        -4.340000       16.000000      -26.049999
Au        -8.240001       20.300003      -24.220001
Au        -3.240000       23.130001      -24.260002
Au        -6.080000       23.910000      -25.800001
Au        -7.100000       21.060001      -21.720001
Au        -9.790000       22.450001      -23.220001
Au       -10.030001       25.350000      -22.910002
Au        -2.290000       24.100000      -21.970001
Au        -8.730000       23.800001      -20.830002
Au       -11.140001       24.820002      -20.490000
Au        -8.690001       26.490002      -20.400002
Au       -10.340000       26.350002      -18.380001
Au       -12.600001       27.630003      -17.800001
Au       -12.010001       29.110003      -15.500001
Au         7.350000        3.200000      -34.510002
Au         4.890000        4.530000      -34.459999
Au         5.820000        6.120000      -32.440002
Au         3.270000        7.500000      -32.330002
Au         5.680000        9.030001      -32.650002
Au         3.220000       10.250001      -32.500004
Au         3.730000        8.660001      -29.950001
Au         1.500000       10.230000      -30.350000
Au         5.510000       14.700001      -23.840000
Au        15.420000       12.320002      -29.020002
Au         1.490000       11.970000      -27.730003
Au        -1.020000       15.890001      -23.310001
Au         5.340000       14.090000      -30.610001
Au         4.710000       13.310001      -25.920000
Au         1.920000       15.800000      -21.140001
Au         6.920000       19.950001      -27.010002
Au         0.620000       16.290001      -25.980000
Au         9.160001       16.920000      -25.620001
Au         0.570000       22.650002      -25.770000
Au        -1.660000       14.770001      -25.860003
Au         3.890000       16.810001      -22.400000
Au        -4.180000       19.390001      -25.970001
Au        -2.750000       18.520000      -21.590002
Au        -5.720000       18.920000      -23.520000
Au        -3.010000       20.510002      -23.100002
Au        -4.700000       22.690001      -21.970001
Au        -4.730000       20.500002      -20.170002
Au        -6.410000       22.470001      -19.460001
Au        -3.860000       23.760002      -19.290001
Au        -6.010000       25.260000      -20.690001
Au        -5.490000       23.570002      -17.010000
Au        -7.650001       24.840002      -18.290001
Au        -5.140000       26.090002      -18.030001
Au        -7.930000       27.640001      -18.100000
Au        -6.720000       25.650002      -15.620001
Au        -9.470000       27.530001      -15.850000
Au        -6.960001       29.060001      -15.880001
Au        -8.460000       29.010000      -13.410001
Au       -11.410000       30.530003      -13.340001
Au       -12.170000       31.840002       -8.870000
Au        10.790000        3.720000      -32.950001
Au         8.280001        5.090000      -32.910000
Au        10.730000        6.370000      -32.850002
Au         8.470000        7.780001      -32.920002
Au         9.090000        6.430000      -30.480001
Au         6.550000        7.800000      -30.360003
Au         8.740000        9.210001      -30.640001
Au         6.540000       10.910001      -30.330002
Au         6.200000        8.990001      -27.950001
Au         3.750000       10.430001      -27.790001
Au         1.370000       14.690001      -28.170002
Au         3.440000       13.140000      -23.190001
